CE 5 element 403MHz yagi.
GW  0    5  0.       -0.1794    0.        0.        0.1794    0.        0.001
GW  1    5  0.2      -0.1567    0.        0.2       0.1567    0.        0.001
GW  0    5  0.4      -0.1589    0.        0.4       0.1589    0.        0.001
GW  0    5  0.6      -0.1589    0.        0.6       0.1589    0.        0.001
GW  0    5  0.8      -0.1589    0.        0.8       0.1589    0.        0.001
GE  0
FR  0  101    0    0  350.      1.
EX  0    1    3    0  1.        0.
RP  0    1    1 1001  90.       0.        0.        0.        0.        0.
XQ
EN
